Artesunate
     RDKit          3D

 55 58  0  0  0  0  0  0  0  0999 V2000
    0.0146    1.0997    4.0647 C   0  0  0  0  0  0  0  0  0  0  0  0
   -0.2329    0.7946    2.5824 C   0  0  2  0  0  0  0  0  0  0  0  0
   -1.4449    1.6002    2.1043 C   0  0  0  0  0  0  0  0  0  0  0  0
   -1.7338    1.3650    0.6288 C   0  0  0  0  0  0  0  0  0  0  0  0
   -1.9788   -0.1225    0.3280 C   0  0  1  0  0  0  0  0  0  0  0  0
   -2.2478   -0.3989   -1.1773 C   0  0  2  0  0  0  0  0  0  0  0  0
   -0.9548   -0.2544   -2.0055 C   0  0  1  0  0  0  0  0  0  0  0  0
    0.0371   -1.1509   -1.5116 O   0  0  0  0  0  0  0  0  0  0  0  0
    0.3976   -0.9117   -0.1509 C   0  0  1  0  0  0  0  0  0  0  0  0
   -0.8145   -1.0154    0.8259 C   0  0  1  0  0  0  0  0  0  0  0  0
   -0.4395   -0.7186    2.3102 C   0  0  1  0  0  0  0  0  0  0  0  0
    0.7704   -1.5405    2.8176 C   0  0  0  0  0  0  0  0  0  0  0  0
    0.9037   -2.9666    2.2670 C   0  0  0  0  0  0  0  0  0  0  0  0
    0.8990   -3.0314    0.7268 C   0  0  2  0  0  0  0  0  0  0  0  0
    1.4456   -1.8218    0.1950 O   0  0  0  0  0  0  0  0  0  0  0  0
   -0.4174   -3.2812    0.2173 O   0  0  0  0  0  0  0  0  0  0  0  0
   -1.3531   -2.3646    0.8668 O   0  0  0  0  0  0  0  0  0  0  0  0
    1.7734   -4.1833    0.2391 C   0  0  0  0  0  0  0  0  0  0  0  0
   -1.2152   -0.6192   -3.3687 O   0  0  0  0  0  0  0  0  0  0  0  0
   -1.2831    0.4011   -4.2618 C   0  0  0  0  0  0  0  0  0  0  0  0
   -1.2117    1.5905   -3.9872 O   0  0  0  0  0  0  0  0  0  0  0  0
   -1.5069   -0.1569   -5.6462 C   0  0  0  0  0  0  0  0  0  0  0  0
   -1.4402    0.9298   -6.7132 C   0  0  0  0  0  0  0  0  0  0  0  0
   -0.0887    1.5788   -6.8530 C   0  0  0  0  0  0  0  0  0  0  0  0
    0.1252    2.6504   -7.3970 O   0  0  0  0  0  0  0  0  0  0  0  0
    0.9338    0.8412   -6.3876 O   0  0  0  0  0  0  0  0  0  0  0  0
   -3.4012    0.4425   -1.7310 C   0  0  0  0  0  0  0  0  0  0  0  0
    0.0796    2.1802    4.2332 H   0  0  0  0  0  0  0  0  0  0  0  0
    0.9568    0.6650    4.4116 H   0  0  0  0  0  0  0  0  0  0  0  0
   -0.7946    0.7086    4.6906 H   0  0  0  0  0  0  0  0  0  0  0  0
    0.6483    1.1393    2.0255 H   0  0  0  0  0  0  0  0  0  0  0  0
   -2.3303    1.3348    2.6963 H   0  0  0  0  0  0  0  0  0  0  0  0
   -1.2684    2.6709    2.2643 H   0  0  0  0  0  0  0  0  0  0  0  0
   -0.9010    1.7574    0.0355 H   0  0  0  0  0  0  0  0  0  0  0  0
   -2.6165    1.9557    0.3597 H   0  0  0  0  0  0  0  0  0  0  0  0
   -2.8899   -0.4182    0.8698 H   0  0  0  0  0  0  0  0  0  0  0  0
   -2.5718   -1.4467   -1.2598 H   0  0  0  0  0  0  0  0  0  0  0  0
   -0.5472    0.7606   -1.9416 H   0  0  0  0  0  0  0  0  0  0  0  0
    0.8427    0.0881   -0.1043 H   0  0  0  0  0  0  0  0  0  0  0  0
   -1.2950   -1.0474    2.9210 H   0  0  0  0  0  0  0  0  0  0  0  0
    0.7254   -1.6073    3.9120 H   0  0  0  0  0  0  0  0  0  0  0  0
    1.6986   -0.9982    2.5923 H   0  0  0  0  0  0  0  0  0  0  0  0
    0.1143   -3.6052    2.6816 H   0  0  0  0  0  0  0  0  0  0  0  0
    1.8555   -3.3561    2.6511 H   0  0  0  0  0  0  0  0  0  0  0  0
    1.4096   -5.1457    0.6145 H   0  0  0  0  0  0  0  0  0  0  0  0
    2.8180   -4.0500    0.5400 H   0  0  0  0  0  0  0  0  0  0  0  0
    1.7587   -4.2361   -0.8560 H   0  0  0  0  0  0  0  0  0  0  0  0
   -0.7607   -0.9353   -5.8396 H   0  0  0  0  0  0  0  0  0  0  0  0
   -2.5017   -0.6158   -5.6640 H   0  0  0  0  0  0  0  0  0  0  0  0
   -2.1656    1.7192   -6.4849 H   0  0  0  0  0  0  0  0  0  0  0  0
   -1.6962    0.4965   -7.6862 H   0  0  0  0  0  0  0  0  0  0  0  0
    1.7230    1.3975   -6.5615 H   0  0  0  0  0  0  0  0  0  0  0  0
   -3.1184    1.4930   -1.8494 H   0  0  0  0  0  0  0  0  0  0  0  0
   -4.2714    0.3931   -1.0680 H   0  0  0  0  0  0  0  0  0  0  0  0
   -3.7197    0.0711   -2.7106 H   0  0  0  0  0  0  0  0  0  0  0  0
  1  2  1  0
  2  3  1  0
  3  4  1  0
  4  5  1  0
  5  6  1  0
  6  7  1  0
  7  8  1  0
  8  9  1  0
  9 10  1  0
 10 11  1  0
 11 12  1  0
 12 13  1  0
 13 14  1  0
 14 15  1  0
 14 16  1  0
 16 17  1  0
 14 18  1  1
  7 19  1  0
 19 20  1  0
 20 21  2  0
 20 22  1  0
 22 23  1  0
 23 24  1  0
 24 25  2  0
 24 26  1  0
  6 27  1  0
 11  2  1  0
 10  5  1  0
 15  9  1  0
 10 17  1  1
  1 28  1  0
  1 29  1  0
  1 30  1  0
  2 31  1  6
  3 32  1  0
  3 33  1  0
  4 34  1  0
  4 35  1  0
  5 36  1  1
  6 37  1  1
  7 38  1  6
  9 39  1  6
 11 40  1  1
 12 41  1  0
 12 42  1  0
 13 43  1  0
 13 44  1  0
 18 45  1  0
 18 46  1  0
 18 47  1  0
 22 48  1  0
 22 49  1  0
 23 50  1  0
 23 51  1  0
 26 52  1  0
 27 53  1  0
 27 54  1  0
 27 55  1  0
M  END
>  <MMFF_Energy_kcal_mol>  (1) 
11.676

>  <Source_SMILES>  (1) 
C[C@@H]1CC[C@H]2[C@H]([C@@H](O[C@H]3[C@@]24[C@H]1CC[C@](O3)(OO4)C)OC(=O)CCC(=O)O)C

$$$$
